*SPEF "1481-1998"
*DESIGN "pri_enc"
*DATE "Mon Jun  2 03:11:32 2025"
*VENDOR "Synopsys, Inc."
*PROGRAM "icc2 /home/synopsys_install/icc2/W-2024.09/linux64/nwtn/bin/icc2_exec"
*VERSION "W-2024.09 Aug 25, 2024"
*DESIGN_FLOW "ICC2 SPEF DR"
*DIVIDER /
*DELIMITER :
*BUS_DELIMITER [ ]
*T_UNIT 1 NS
*C_UNIT 1 FF
*R_UNIT 1 OHM
*L_UNIT 1 HENRY

// XY_UNIT 1 UM
// PARASITIC_TECH p2 at 125.000 degree

*NAME_MAP
*1 Clock
*2 d[3]
*3 d[2]
*4 d[1]
*5 d[0]
*6 q[1]
*7 q[0]
*8 v
*9 VDD
*10 VSS
*11 v_reg
*12 q_reg[1]
*13 q_reg[0]
*14 U14
*15 U15
*16 U16
*17 U17
*18 U18
*19 N5
*20 N6
*21 N7
*22 n9
*23 n10

*PORTS

*1 I *C 5.496 10.545
*2 I *C 12.065 3.216
*3 I *C 8.992 7.201
*4 I *C 7.961 8.992
*5 I *C 3.672 10.545
*6 O *C 5.800 10.545
*7 O *C 9.296 7.201
*8 O *C 8.384 0.143
*9 I *C 6.104 5.344
*10 I *C 6.104 5.344

*D_NET *1 0.9359714 //LENGTH 13.453 LUMPCC 0 DR

*CONN
*P *1 I *L 0 *C 5.496 10.430
*I *12:CLK I *L 0.714381 *C 2.760 8.536
*I *13:CLK I *L 0.714381 *C 5.800 5.192
*I *11:CLK I *L 0.714381 *C 6.408 2.152
*N *1:4 *C 6.408 2.166
*N *1:5 *C 5.800 5.179
*N *1:6 *C 5.800 5.040
*N *1:7 *C 5.814 5.040
*N *1:8 *C 6.395 5.040
*N *1:9 *C 6.408 5.040
*N *1:10 *C 6.408 8.370
*N *1:11 *C 6.395 8.384
*N *1:12 *C 2.760 8.524
*N *1:13 *C 2.760 8.384
*N *1:14 *C 2.774 8.384
*N *1:15 *C 5.496 8.384
*N *1:16 *C 5.496 8.398

*CAP
0 *1 0.09226985
1 *12:CLK 0.001
2 *13:CLK 0.001
3 *11:CLK 0.001
4 *1:4 0.1087189
5 *1:5 0.008560812
6 *1:6 0.009704343
7 *1:7 0.02149093
8 *1:8 0.02149093
9 *1:9 0.2292764
10 *1:10 0.117635
11 *1:11 0.02782837
12 *1:12 0.00581584
13 *1:13 0.006959372
14 *1:14 0.08156122
15 *1:15 0.1111686
16 *1:16 0.09049082

*RES
0 *1 *1:16 3.629465
1 *1:4 *11:CLK 1
2 *1:9 *1:8 0.5
3 *1:9 *1:4 5.133036
4 *1:8 *1:7 1.0375
5 *1:6 *1:5 0.2325
6 *1:7 *1:6 0.5
7 *1:5 *13:CLK 1
8 *1:10 *1:9 5.947322
9 *1:11 *1:10 0.5
10 *1:16 *1:15 0.5
11 *1:15 *1:14 4.861608
12 *1:15 *1:11 1.604465
13 *1:13 *1:12 0.2325
14 *1:14 *1:13 0.5
15 *1:12 *12:CLK 1

*END

*D_NET *2 0.5667611 //LENGTH 9.158 LUMPCC 0 DR

*CONN
*P *2 I *L 0 *C 11.950 3.216
*I *18:A1 I *L 0.625865 *C 4.554 2.760
*I *16:A1 I *L 0.625865 *C 3.991 2.760
*N *2:3 *C 3.991 2.760
*N *2:4 *C 3.976 2.774
*N *2:5 *C 3.976 3.203
*N *2:6 *C 3.990 3.216

*CAP
0 *2 0.2395604
1 *18:A1 0.02860158
2 *16:A1 0.001
3 *2:3 0.02567901
4 *2:4 0.01649763
5 *2:5 0.01764116
6 *2:6 0.2377813

*RES
0 *2 *2:6 14.21518
1 *2:4 *2:3 1
2 *2:5 *2:4 0.7660715
3 *2:6 *2:5 0.5
4 *2:3 *18:A1 1.1266
5 *2:3 *16:A1 0.001

*END

*D_NET *3 0.7730921 //LENGTH 11.358 LUMPCC 0 DR

*CONN
*P *3 I *L 0 *C 8.992 7.086
*I *16:A2 I *L 0.705032 *C 3.674 2.912
*I *17:A1 I *L 0.610165 *C 2.607 4.432
*N *3:3 *C 2.546 4.432
*N *3:4 *C 2.546 4.432
*N *3:5 *C 2.608 4.432
*N *3:6 *C 2.622 4.432
*N *3:7 *C 3.674 2.912
*N *3:8 *C 3.520 2.912
*N *3:9 *C 3.520 4.418
*N *3:10 *C 3.520 4.432
*N *3:11 *C 8.979 4.432
*N *3:12 *C 8.992 4.446

*CAP
0 *3 0.1094373
1 *16:A2 0.001
2 *17:A1 0.011961
3 *3:3 0.007178622
4 *3:4 0.006992301
5 *3:5 0.001
6 *3:6 0.02605657
7 *3:7 0.007785055
8 *3:8 0.06976526
9 *3:9 0.06118581
10 *3:10 0.1954538
11 *3:11 0.1676182
12 *3:12 0.1076582

*RES
0 *3 *3:12 4.715179
1 *3:12 *3:11 0.5
2 *3:11 *3:10 9.747322
3 *3:9 *3:8 2.690179
4 *3:10 *3:9 0.5
5 *3:10 *3:6 1.604465
6 *3:7 *16:A2 0.5
7 *3:5 *3:4 0.05636364
8 *3:6 *3:5 0.5
9 *3:3 *17:A1 0.1916667
10 *3:4 *3:3 0.5
11 *3:8 *3:7 0.275

*END

*D_NET *4 0.6268195 //LENGTH 8.277 LUMPCC 0 DR

*CONN
*P *4 I *L 0 *C 7.846 8.992
*I *14:A1 I *L 0.5564 *C 3.976 6.256
*I *15:A I *L 0.604022 *C 3.064 6.256
*N *4:3 *C 3.064 6.074
*N *4:4 *C 3.064 6.244
*N *4:5 *C 3.078 6.256
*N *4:6 *C 3.976 6.074
*N *4:7 *C 3.976 6.244
*N *4:8 *C 3.976 6.256
*N *4:9 *C 5.635 6.256
*N *4:10 *C 5.648 6.270
*N *4:11 *C 5.648 8.979
*N *4:12 *C 5.662 8.992

*CAP
0 *4 0.06568431
1 *14:A1 0.001
2 *15:A 0.001
3 *4:3 0.01891905
4 *4:4 0.01421745
5 *4:5 0.03333947
6 *4:6 0.01050212
7 *4:7 0.005800517
8 *4:8 0.0907667
9 *4:9 0.05564819
10 *4:10 0.1330182
11 *4:11 0.1330182
12 *4:12 0.06390528

*RES
0 *4 *4:12 3.900893
1 *4:10 *4:9 0.5
2 *4:9 *4:8 2.961607
3 *4:11 *4:10 4.837501
4 *4:12 *4:11 0.5
5 *4:7 *14:A1 1
6 *4:7 *4:6 0.2825
7 *4:8 *4:7 0.5
8 *4:8 *4:5 1.604464
9 *4:4 *15:A 1
10 *4:4 *4:3 0.2825
11 *4:5 *4:4 0.5

*END

*D_NET *5 0.354581 //LENGTH 5.209 LUMPCC 0 DR

*CONN
*P *5 I *L 0 *C 3.672 10.430
*I *14:A2 I *L 0.60771 *C 4.280 6.104
*N *5:2 *C 4.280 6.118
*N *5:3 *C 4.280 7.459
*N *5:4 *C 4.267 7.472
*N *5:5 *C 3.686 7.472
*N *5:6 *C 3.672 7.486

*CAP
0 *5 0.09934688
1 *14:A2 0.001
2 *5:2 0.05676938
3 *5:3 0.05791292
4 *5:4 0.02099199
5 *5:5 0.02099199
6 *5:6 0.09756784

*RES
0 *5 *5:6 5.258036
1 *5:2 *14:A2 1
2 *5:3 *5:2 2.394643
3 *5:4 *5:3 0.5
4 *5:6 *5:5 0.5
5 *5:5 *5:4 1.0375

*END

*D_NET *6 0.2132202 //LENGTH 2.405 LUMPCC 0 DR

*CONN
*I *12:Q O *L 0 *C 5.800 8.080
*P *6 O *L 0 *C 5.800 10.430
*N *6:2 *C 5.800 8.094

*CAP
0 *12:Q 0.001
1 *6 0.1075714
2 *6:2 0.1046488

*RES
0 *12:Q *6:2 1
1 *6:2 *6 4.172322

*END

*D_NET *7 0.2239319 //LENGTH 3.081 LUMPCC 0 DR

*CONN
*I *13:Q O *L 0 *C 8.840 4.736
*P *7 O *L 0 *C 9.296 7.086
*N *7:2 *C 9.296 5.054
*N *7:3 *C 9.283 5.040
*N *7:4 *C 8.854 5.040
*N *7:5 *C 8.840 5.027
*N *7:6 *C 8.840 4.750

*CAP
0 *13:Q 0.001
1 *7 0.07944717
2 *7:2 0.07766812
3 *7:3 0.01553339
4 *7:4 0.01553339
5 *7:5 0.01794667
6 *7:6 0.01680313

*RES
0 *13:Q *7:6 1
1 *7:6 *7:5 0.4946429
2 *7:5 *7:4 0.5
3 *7:4 *7:3 0.7660714
4 *7:2 *7 3.629464
5 *7:3 *7:2 0.5

*END

*D_NET *8 0.2209861 //LENGTH 3.689 LUMPCC 0 DR

*CONN
*I *11:Q O *L 0 *C 9.448 2.608
*P *8 O *L 0 *C 8.384 0.258
*N *8:2 *C 8.384 1.987
*N *8:3 *C 8.398 2.000
*N *8:4 *C 9.434 2.000
*N *8:5 *C 9.448 2.014
*N *8:6 *C 9.448 2.595

*CAP
0 *11:Q 0.001
1 *8 0.05666018
2 *8:2 0.05488115
3 *8:3 0.032138
4 *8:4 0.032138
5 *8:5 0.02265617
6 *8:6 0.02151264

*RES
0 *11:Q *8:6 1
1 *8:6 *8:5 1.0375
2 *8:5 *8:4 0.5
3 *8:4 *8:3 1.851786
4 *8:2 *8 3.086607
5 *8:3 *8:2 0.5

*END

*D_NET *19 0.1181317 //LENGTH 1.438 LUMPCC 0 DR

*CONN
*I *18:Y O *L 0 *C 5.344 3.216
*I *13:D I *L 0.558146 *C 5.496 4.280
*N *19:2 *C 5.496 4.267
*N *19:3 *C 5.496 3.520
*N *19:4 *C 5.344 3.520
*N *19:5 *C 5.344 3.230

*CAP
0 *18:Y 0.001
1 *13:D 0.001
2 *19:2 0.03145203
3 *19:3 0.04358189
4 *19:4 0.02661381
5 *19:5 0.01448396

*RES
0 *18:Y *19:5 1
1 *19:2 *13:D 1
2 *19:5 *19:4 0.5187501
3 *19:4 *19:3 0.2714286
4 *19:3 *19:2 1.333036

*END

*D_NET *20 0.5161966 //LENGTH 6.981 LUMPCC 0 DR

*CONN
*I *16:Y O *L 0 *C 3.216 3.216
*I *12:D I *L 0.558146 *C 2.456 7.624
*I *14:A3 I *L 0.666711 *C 4.432 6.408
*N *20:3 *C 4.432 6.408
*N *20:4 *C 4.432 6.548
*N *20:5 *C 4.418 6.560
*N *20:6 *C 2.456 7.611
*N *20:7 *C 2.456 6.574
*N *20:8 *C 2.470 6.560
*N *20:9 *C 3.216 6.560
*N *20:10 *C 3.216 6.546
*N *20:11 *C 3.216 3.230

*CAP
0 *16:Y 0.001
1 *12:D 0.001
2 *14:A3 0.001
3 *20:3 0.009508593
4 *20:4 0.01065212
5 *20:5 0.04603369
6 *20:6 0.0359522
7 *20:7 0.03709573
8 *20:8 0.02283962
9 *20:9 0.07065234
10 *20:10 0.1408029
11 *20:11 0.1396594

*RES
0 *16:Y *20:11 1
1 *20:4 *20:3 0.2325
2 *20:5 *20:4 0.5
3 *20:3 *14:A3 1
4 *20:10 *20:9 0.5
5 *20:9 *20:8 1.333036
6 *20:9 *20:5 2.147322
7 *20:11 *20:10 5.923214
8 *20:7 *20:6 1.851786
9 *20:8 *20:7 0.5
10 *20:6 *12:D 1

*END

*D_NET *21 0.4123701 //LENGTH 4.999 LUMPCC 0 DR

*CONN
*I *14:Y O *L 0 *C 4.918 6.712
*I *11:D I *L 0.558146 *C 6.104 3.064
*N *21:2 *C 6.104 3.078
*N *21:3 *C 6.104 6.699
*N *21:4 *C 6.089 6.712

*CAP
0 *14:Y 0.0543185
1 *11:D 0.001
2 *21:2 0.1514994
3 *21:3 0.1528278
4 *21:4 0.05272438

*RES
0 *14:Y *21:4 2.342
1 *21:2 *11:D 1
2 *21:4 *21:3 1
3 *21:3 *21:2 6.466072

*END

*D_NET *22 0.2198698 //LENGTH 2.527 LUMPCC 0 DR

*CONN
*I *15:Y O *L 0 *C 2.760 6.408
*I *17:A2 I *L 0.708348 *C 2.910 4.280
*N *22:2 *C 2.912 4.306
*N *22:3 *C 2.912 5.952
*N *22:4 *C 2.760 5.952
*N *22:5 *C 2.760 6.395

*CAP
0 *15:Y 0.001
1 *17:A2 0.001
2 *22:2 0.07692112
3 *22:3 0.08732135
4 *22:4 0.03168166
5 *22:5 0.02194565

*RES
0 *15:Y *22:5 1
1 *22:2 *17:A2 0.5
2 *22:5 *22:4 0.7901786
3 *22:4 *22:3 0.2714286
4 *22:3 *22:2 2.939286

*END

*D_NET *23 0.1936979 //LENGTH 2.600 LUMPCC 0 DR

*CONN
*I *17:Y O *L 0 *C 3.702 4.107
*I *18:A2 I *L 0.705032 *C 4.890 2.912
*N *23:2 *C 4.890 2.912
*N *23:3 *C 4.736 2.912
*N *23:4 *C 4.736 4.115
*N *23:5 *C 4.721 4.128

*CAP
0 *17:Y 0.04568464
1 *18:A2 0.001
2 *23:2 0.007975436
3 *23:3 0.05170782
4 *23:4 0.04323952
5 *23:5 0.04409051

*RES
0 *17:Y *23:5 2.038
1 *23:2 *18:A2 0.5
2 *23:5 *23:4 1
3 *23:4 *23:3 2.147322
4 *23:3 *23:2 0.275

*END

