*SPEF "1481-1998"
*DESIGN "pri_enc"
*DATE "Mon Jun  2 05:32:52 2025"
*VENDOR "Synopsys, Inc."
*PROGRAM "icc2 /home/synopsys_install/icc2/W-2024.09/linux64/nwtn/bin/icc2_exec"
*VERSION "W-2024.09 Aug 25, 2024"
*DESIGN_FLOW "ICC2 SPEF DR"
*DIVIDER /
*DELIMITER :
*BUS_DELIMITER [ ]
*T_UNIT 1 NS
*C_UNIT 1 FF
*R_UNIT 1 OHM
*L_UNIT 1 HENRY

// XY_UNIT 1 UM
// PARASITIC_TECH p2 at 125.000 degree

*NAME_MAP
*1 Clock
*2 d[3]
*3 d[2]
*4 d[1]
*5 d[0]
*6 q[1]
*7 q[0]
*8 v
*9 VDD
*10 VSS
*11 v_reg
*12 q_reg[0]
*13 q_reg[1]
*14 ctosc_drc_inst_338
*15 ctmTdsLR_1_1
*16 ctmTdsLR_1_432
*17 ctosc_drc_inst_429
*18 ctmTdsLR_2_431
*19 U14
*20 ctmTdsLR_2_433
*21 U18
*22 ctosc_drc_0
*23 tmp_net0
*24 N5
*25 N6
*26 N7
*27 ctosc_drc_1
*28 tmp_net3
*29 tmp_net4

*PORTS

*1 I *C 0.143 5.344
*2 I *C 9.296 7.201
*3 I *C 12.369 3.824
*4 I *C 8.113 8.992
*5 I *C 3.976 10.545
*6 O *C 5.952 10.545
*7 O *C 7.472 10.545
*8 O *C 8.080 0.143
*9 I *C 6.256 5.344
*10 I *C 6.256 5.344

*D_NET *22 0.5743508 //LENGTH 6.772 LUMPCC 0 DR

*CONN
*I *14:Y O *L 0 *C 3.064 7.624
*I *11:CLK I *L 0.714381 *C 2.760 2.152
*I *12:CLK I *L 0.714381 *C 2.760 5.192
*I *13:CLK I *L 0.717204 *C 3.064 5.496
*N *22:4 *C 3.064 5.510
*N *22:5 *C 2.760 5.179
*N *22:6 *C 2.760 2.166
*N *22:7 *C 2.760 5.040
*N *22:8 *C 2.912 5.040
*N *22:9 *C 2.912 5.952
*N *22:10 *C 3.064 5.952
*N *22:11 *C 3.064 7.611

*CAP
0 *14:Y 0.001
1 *11:CLK 0.001
2 *12:CLK 0.001
3 *13:CLK 0.001
4 *22:4 0.02312585
5 *22:5 0.008061937
6 *22:6 0.105926
7 *22:7 0.1278208
8 *22:8 0.06084882
9 *22:9 0.06059878
10 *22:10 0.1103386
11 *22:11 0.07362991

*RES
0 *14:Y *22:11 1
1 *22:11 *22:10 2.961607
2 *22:4 *13:CLK 1
3 *22:5 *12:CLK 1
4 *22:6 *11:CLK 1
5 *22:7 *22:6 5.133036
6 *22:7 *22:5 0.2473214
7 *22:8 *22:7 0.2714286
8 *22:9 *22:8 1.628572
9 *22:10 *22:9 0.2714286
10 *22:10 *22:4 0.7901787

*END

*D_NET *23 0.2837781 //LENGTH 3.552 LUMPCC 0 DR

*CONN
*I *15:Y O *L 0 *C 8.536 3.064
*I *18:A2 I *L 0.483357 *C 6.737 2.937
*N *23:2 *C 7.305 2.912
*N *23:3 *C 7.320 2.899
*N *23:4 *C 7.320 2.317
*N *23:5 *C 7.333 2.304
*N *23:6 *C 8.523 2.304
*N *23:7 *C 8.536 2.317
*N *23:8 *C 8.536 3.050

*CAP
0 *15:Y 0.001
1 *18:A2 0.03863636
2 *23:2 0.03704223
3 *23:3 0.02678896
4 *23:4 0.02660405
5 *23:5 0.04861654
6 *23:6 0.04861654
7 *23:7 0.02880846
8 *23:8 0.02766493

*RES
0 *15:Y *23:8 1
1 *23:2 *18:A2 1.136
2 *23:3 *23:2 1
3 *23:4 *23:3 1.0375
4 *23:5 *23:4 0.5
5 *23:7 *23:6 0.5
6 *23:6 *23:5 2.123214
7 *23:8 *23:7 1.308929

*END

*D_NET *1 0.548073 //LENGTH 7.947 LUMPCC 0 DR

*CONN
*P *1 I *L 0 *C 0.258 5.344
*I *17:A I *L 2.117502 *C 6.408 4.432
*N *1:2 *C 6.408 4.446
*N *1:3 *C 6.408 5.635
*N *1:4 *C 6.395 5.648
*N *1:5 *C 0.480 5.648
*N *1:6 *C 0.480 5.344

*CAP
0 *1 0.009717908
1 *17:A 0.001
2 *1:2 0.05119601
3 *1:3 0.05233954
4 *1:4 0.2012299
5 *1:5 0.2129403
6 *1:6 0.01964927

*RES
0 *1 *1:6 0.3964286
1 *1:2 *17:A 1
2 *1:3 *1:2 2.123214
3 *1:4 *1:3 0.5
4 *1:6 *1:5 0.5428572
5 *1:5 *1:4 10.56161

*END

*D_NET *2 0.4830798 //LENGTH 6.766 LUMPCC 0 DR

*CONN
*P *2 I *L 0 *C 9.296 7.086
*I *20:A I *L 0.797938 *C 10.208 4.432
*I *21:A1 I *L 0.625865 *C 10.208 2.760
*N *2:3 *C 10.208 2.760
*N *2:4 *C 10.208 2.900
*N *2:5 *C 10.194 2.912
*N *2:6 *C 9.614 2.912
*N *2:7 *C 9.600 2.925
*N *2:8 *C 10.208 4.418
*N *2:9 *C 10.208 4.142
*N *2:10 *C 10.194 4.128
*N *2:11 *C 9.601 4.128
*N *2:12 *C 9.600 4.127
*N *2:13 *C 9.296 4.128

*CAP
0 *2 0.108836
1 *20:A 0.001
2 *21:A1 0.001
3 *2:3 0.006470411
4 *2:4 0.007613942
5 *2:5 0.02116909
6 *2:6 0.02116909
7 *2:7 0.05131404
8 *2:8 0.01255057
9 *2:9 0.0136941
10 *2:10 0.02551758
11 *2:11 0.02551758
12 *2:12 0.06485273
13 *2:13 0.1223747

*RES
0 *2 *2:13 5.282143
1 *2:12 *2:11 0.5
2 *2:12 *2:7 2.145536
3 *2:11 *2:10 1.059822
4 *2:9 *2:8 0.4946429
5 *2:10 *2:9 0.5
6 *2:8 *20:A 1
7 *2:7 *2:6 0.5
8 *2:6 *2:5 1.0375
9 *2:4 *2:3 0.2325
10 *2:5 *2:4 0.5
11 *2:3 *21:A1 1
12 *2:13 *2:12 0.5428572

*END

*D_NET *3 0.4581729 //LENGTH 5.825 LUMPCC 0 DR

*CONN
*P *3 I *L 0 *C 12.254 3.824
*I *21:A2 I *L 0.705032 *C 9.902 2.912
*I *15:A I *L 0.797938 *C 8.870 2.912
*N *3:3 *C 9.129 2.912
*N *3:4 *C 9.144 2.925
*N *3:5 *C 9.904 2.938
*N *3:6 *C 9.904 3.203
*N *3:7 *C 9.891 3.216
*N *3:8 *C 9.158 3.216
*N *3:9 *C 9.144 3.216
*N *3:10 *C 9.144 3.811
*N *3:11 *C 9.158 3.824

*CAP
0 *3 0.1215764
1 *21:A2 0.001
2 *15:A 0.01884711
3 *3:3 0.01725298
4 *3:4 0.01444805
5 *3:5 0.01275416
6 *3:6 0.01456191
7 *3:7 0.03041175
8 *3:8 0.03041175
9 *3:9 0.04657682
10 *3:10 0.03053465
11 *3:11 0.1197974

*RES
0 *3 *3:11 5.529465
1 *3:10 *3:9 1.061607
2 *3:11 *3:10 0.5
3 *3:9 *3:8 0.5
4 *3:9 *3:4 0.51875
5 *3:8 *3:7 1.308929
6 *3:6 *3:5 0.4723215
7 *3:7 *3:6 0.5
8 *3:5 *21:A2 0.5
9 *3:3 *15:A 0.5180001
10 *3:4 *3:3 1

*END

*D_NET *4 0.669238 //LENGTH 9.608 LUMPCC 0 DR

*CONN
*P *4 I *L 0 *C 7.998 8.992
*I *19:A1 I *L 0.5564 *C 5.496 7.776
*I *18:A1 I *L 0.564384 *C 6.562 2.635
*N *4:3 *C 6.700 2.608
*N *4:4 *C 6.712 2.622
*N *4:5 *C 5.496 7.594
*N *4:6 *C 5.496 7.764
*N *4:7 *C 5.510 7.776
*N *4:8 *C 6.699 7.776
*N *4:9 *C 6.712 7.776
*N *4:10 *C 6.712 8.979
*N *4:11 *C 6.726 8.992

*CAP
0 *4 0.03860034
1 *19:A1 0.001
2 *18:A1 0.01562957
3 *4:3 0.01403545
4 *4:4 0.1906039
5 *4:5 0.0112381
6 *4:6 0.006536498
7 *4:7 0.0408047
8 *4:8 0.0408047
9 *4:9 0.2326808
10 *4:10 0.04048272
11 *4:11 0.03682131

*RES
0 *4 *4:11 2.272322
1 *4:10 *4:9 2.147322
2 *4:11 *4:10 0.5
3 *4:3 *18:A1 0.2283333
4 *4:4 *4:3 1
5 *4:9 *4:8 0.5
6 *4:9 *4:4 9.204465
7 *4:8 *4:7 2.123214
8 *4:6 *19:A1 1
9 *4:6 *4:5 0.2825
10 *4:7 *4:6 0.5

*END

*D_NET *5 0.2378159 //LENGTH 3.993 LUMPCC 0 DR

*CONN
*P *5 I *L 0 *C 3.976 10.430
*I *19:A2 I *L 0.60771 *C 5.192 7.928
*N *5:2 *C 5.192 7.942
*N *5:3 *C 5.192 8.370
*N *5:4 *C 5.179 8.384
*N *5:5 *C 3.990 8.384
*N *5:6 *C 3.976 8.398

*CAP
0 *5 0.06530609
1 *19:A2 0.001
2 *5:2 0.01678031
3 *5:3 0.01792384
4 *5:4 0.03663933
5 *5:5 0.03663933
6 *5:6 0.06352706

*RES
0 *5 *5:6 3.629465
1 *5:2 *19:A2 1
2 *5:3 *5:2 0.7660715
3 *5:4 *5:3 0.5
4 *5:6 *5:5 0.5
5 *5:5 *5:4 2.123214

*END

*D_NET *6 0.2602525 //LENGTH 3.925 LUMPCC 0 DR

*CONN
*I *13:QN O *L 0 *C 5.952 6.560
*P *6 O *L 0 *C 5.952 10.430
*N *6:2 *C 5.952 6.574

*CAP
0 *13:QN 0.001
1 *6 0.1310875
2 *6:2 0.128165

*RES
0 *13:QN *6:2 1
1 *6:2 *6 6.886608

*END

*D_NET *7 0.4862622 //LENGTH 7.641 LUMPCC 0 DR

*CONN
*I *12:Q O *L 0 *C 5.800 4.736
*P *7 O *L 0 *C 7.472 10.430
*N *7:2 *C 7.472 6.270
*N *7:3 *C 7.459 6.256
*N *7:4 *C 5.814 6.256
*N *7:5 *C 5.800 6.243
*N *7:6 *C 5.800 4.750

*CAP
0 *12:Q 0.001
1 *7 0.133663
2 *7:2 0.1318839
3 *7:3 0.05430021
4 *7:4 0.05430021
5 *7:5 0.05612922
6 *7:6 0.05498569

*RES
0 *12:Q *7:6 1
1 *7:6 *7:5 2.666071
2 *7:5 *7:4 0.5
3 *7:4 *7:3 2.9375
4 *7:2 *7 7.429465
5 *7:3 *7:2 0.5

*END

*D_NET *8 0.2948852 //LENGTH 4.797 LUMPCC 0 DR

*CONN
*I *11:Q O *L 0 *C 5.800 2.608
*P *8 O *L 0 *C 8.080 0.258
*N *8:2 *C 8.080 0.480
*N *8:3 *C 5.800 0.480
*N *8:4 *C 5.800 2.595

*CAP
0 *11:Q 0.001
1 *8 0.008861403
2 *8:2 0.07805783
3 *8:3 0.1395425
4 *8:4 0.06742352

*RES
0 *11:Q *8:4 1
1 *8:4 *8:3 3.775893
2 *8:3 *8:2 4.071429
3 *8:2 *8 0.3964286

*END

*D_NET *24 0.6268227 //LENGTH 7.694 LUMPCC 0 DR

*CONN
*I *16:Y O *L 0 *C 7.898 2.760
*I *12:D I *L 0.558146 *C 2.444 4.280
*N *24:2 *C 2.317 4.280
*N *24:3 *C 2.304 4.267
*N *24:4 *C 2.304 3.230
*N *24:5 *C 2.317 3.216
*N *24:6 *C 7.003 3.216
*N *24:7 *C 7.016 3.203
*N *24:8 *C 7.016 2.774
*N *24:9 *C 7.031 2.760

*CAP
0 *16:Y 0.06121853
1 *12:D 0.01268821
2 *24:2 0.01109408
3 *24:3 0.0485042
4 *24:4 0.04831929
5 *24:5 0.1711268
6 *24:6 0.1711268
7 *24:7 0.02146773
8 *24:8 0.02165264
9 *24:9 0.05962441

*RES
0 *16:Y *24:9 1.734
1 *24:2 *12:D 0.2116667
2 *24:3 *24:2 1
3 *24:4 *24:3 1.851786
4 *24:5 *24:4 0.5
5 *24:7 *24:6 0.5
6 *24:6 *24:5 8.366072
7 *24:9 *24:8 1
8 *24:8 *24:7 0.7660715

*END

*D_NET *25 1.090309 //LENGTH 15.262 LUMPCC 0 DR

*CONN
*I *21:Y O *L 0 *C 9.418 3.216
*I *13:SETB I *L 0.55078 *C 2.139 6.276
*I *19:A3 I *L 0.666711 *C 5.040 7.624
*N *25:3 *C 5.040 7.612
*N *25:4 *C 5.040 7.472
*N *25:5 *C 5.027 7.472
*N *25:6 *C 3.990 7.472
*N *25:7 *C 3.976 7.459
*N *25:8 *C 2.000 6.074
*N *25:9 *C 2.013 6.256
*N *25:10 *C 2.000 6.244
*N *25:11 *C 2.014 6.256
*N *25:12 *C 3.963 6.256
*N *25:13 *C 3.976 6.256
*N *25:14 *C 3.976 2.622
*N *25:15 *C 3.990 2.608
*N *25:16 *C 8.979 2.608
*N *25:17 *C 8.992 2.622
*N *25:18 *C 8.992 3.203
*N *25:19 *C 9.007 3.216

*CAP
0 *21:Y 0.02958318
1 *13:SETB 0.01244523
2 *19:A3 0.001
3 *25:3 0.007660359
4 *25:4 0.00880389
5 *25:5 0.03534999
6 *25:6 0.03534999
7 *25:7 0.04219217
8 *25:8 0.01529448
9 *25:9 0.0108511
10 *25:10 0.01192132
11 *25:11 0.06697247
12 *25:12 0.06697247
13 *25:13 0.1743181
14 *25:14 0.130347
15 *25:15 0.1770447
16 *25:16 0.1770447
17 *25:17 0.02949184
18 *25:18 0.02967675
19 *25:19 0.02798905

*RES
0 *21:Y *25:19 0.8220001
1 *25:7 *25:6 0.5
2 *25:6 *25:5 1.851786
3 *25:4 *25:3 0.2325
4 *25:5 *25:4 0.5
5 *25:3 *19:A3 1
6 *25:14 *25:13 6.49018
7 *25:15 *25:14 0.5
8 *25:17 *25:16 0.5
9 *25:16 *25:15 8.908929
10 *25:19 *25:18 1
11 *25:18 *25:17 1.0375
12 *25:13 *25:12 0.5
13 *25:13 *25:7 2.147322
14 *25:12 *25:11 3.480357
15 *25:10 *25:9 1
16 *25:10 *25:8 0.2825
17 *25:11 *25:10 0.5
18 *25:9 *13:SETB 0.2116667

*END

*D_NET *26 0.4892604 //LENGTH 6.714 LUMPCC 0 DR

*CONN
*I *19:Y O *L 0 *C 4.584 7.320
*I *11:D I *L 0.558146 *C 2.456 3.064
*N *26:2 *C 2.456 3.078
*N *26:3 *C 2.456 3.506
*N *26:4 *C 2.470 3.520
*N *26:5 *C 4.571 3.520
*N *26:6 *C 4.584 3.534
*N *26:7 *C 4.584 7.307

*CAP
0 *19:Y 0.001
1 *11:D 0.001
2 *26:2 0.02506734
3 *26:3 0.02621087
4 *26:4 0.08016703
5 *26:5 0.08016703
6 *26:6 0.1383958
7 *26:7 0.1372523

*RES
0 *19:Y *26:7 1
1 *26:2 *11:D 1
2 *26:3 *26:2 0.7660715
3 *26:4 *26:3 0.5
4 *26:6 *26:5 0.5
5 *26:5 *26:4 3.751786
6 *26:7 *26:6 6.7375

*END

*D_NET *27 0.8515607 //LENGTH 11.457 LUMPCC 0 DR

*CONN
*I *17:Y O *L 0 *C 9.600 4.280
*I *14:A I *L 0.578227 *C 2.304 7.776
*N *27:2 *C 2.303 7.776
*N *27:3 *C 2.152 7.776
*N *27:4 *C 2.152 4.750
*N *27:5 *C 2.166 4.736
*N *27:6 *C 9.587 4.736
*N *27:7 *C 9.600 4.723
*N *27:8 *C 9.600 4.293

*CAP
0 *17:Y 0.001
1 *14:A 0.001
2 *27:2 0.00423033
3 *27:3 0.1578795
4 *27:4 0.1489476
5 *27:5 0.2478767
6 *27:6 0.2478767
7 *27:7 0.02194678
8 *27:8 0.02080325

*RES
0 *17:Y *27:8 1
1 *27:2 *14:A 1
2 *27:4 *27:3 5.404465
3 *27:5 *27:4 0.5
4 *27:7 *27:6 0.5
5 *27:6 *27:5 13.25179
6 *27:8 *27:7 0.7660714
7 *27:3 *27:2 0.2696429

*END

*D_NET *28 0.1612537 //LENGTH 1.845 LUMPCC 0 DR

*CONN
*I *18:Y O *L 0 *C 6.403 2.760
*I *16:A2 I *L 0.483357 *C 7.624 2.912
*N *28:2 *C 7.624 2.780
*N *28:3 *C 7.624 2.900
*N *28:4 *C 7.611 2.912
*N *28:5 *C 6.574 2.912
*N *28:6 *C 6.560 2.900
*N *28:7 *C 6.560 2.760
*N *28:8 *C 6.548 2.760

*CAP
0 *18:Y 0.01646797
1 *16:A2 0.001
2 *28:2 0.01095782
3 *28:3 0.004906534
4 *28:4 0.04545787
5 *28:5 0.04694039
6 *28:6 0.01023218
7 *28:7 0.01041709
8 *28:8 0.01487384

*RES
0 *18:Y *28:8 0.2408333
1 *28:3 *16:A2 1
2 *28:3 *28:2 0.1991667
3 *28:4 *28:3 0.5
4 *28:6 *28:5 0.5
5 *28:5 *28:4 1.851786
6 *28:8 *28:7 1
7 *28:7 *28:6 0.2325

*END

*D_NET *29 0.3323582 //LENGTH 4.634 LUMPCC 0 DR

*CONN
*I *20:Y O *L 0 *C 9.904 4.280
*I *16:A1 I *L 0.564384 *C 7.776 2.608
*N *29:2 *C 7.776 2.609
*N *29:3 *C 7.776 3.506
*N *29:4 *C 7.790 3.520
*N *29:5 *C 8.675 3.520
*N *29:6 *C 8.688 3.534
*N *29:7 *C 8.688 4.418
*N *29:8 *C 8.702 4.432
*N *29:9 *C 9.891 4.432
*N *29:10 *C 9.904 4.420
*N *29:11 *C 9.904 4.280

*CAP
0 *20:Y 0.001
1 *16:A1 0.001
2 *29:2 0.03505686
3 *29:3 0.03620039
4 *29:4 0.03542052
5 *29:5 0.03542052
6 *29:6 0.03651707
7 *29:7 0.03651707
8 *29:8 0.04867729
9 *29:9 0.04867729
10 *29:10 0.009507373
11 *29:11 0.008363841

*RES
0 *20:Y *29:11 1
1 *29:2 *16:A1 1
2 *29:3 *29:2 1.602679
3 *29:4 *29:3 0.5
4 *29:6 *29:5 0.5
5 *29:5 *29:4 1.580357
6 *29:7 *29:6 1.580357
7 *29:8 *29:7 0.5
8 *29:10 *29:9 0.5
9 *29:9 *29:8 2.123214
10 *29:11 *29:10 0.2325

*END

